data_Band
_audit_creation_date              2007-10-11
_audit_creation_method            'Materials Studio'
_symmetry_space_group_name_H-M    'P1'
_symmetry_Int_Tables_number       1
_symmetry_cell_setting            triclinic
loop_
_symmetry_equiv_pos_as_xyz
  x,y,z
_cell_length_a                    4.0578
_cell_length_b                    4.0578
_cell_length_c                   30.1892
_cell_angle_alpha                 90.0000
_cell_angle_beta                  90.0000
_cell_angle_gamma                119.9999
loop_
_atom_site_label
_atom_site_type_symbol
_atom_site_fract_x
_atom_site_fract_y
_atom_site_fract_z
_atom_site_Uiso_or_equiv
_atom_site_adp_type
_atom_site_occupancy
A1     La    0.33277   0.66582   0.49242   0.00000  Uiso   1.00
A2     N     0.99887   0.00005   0.46472   0.00000  Uiso   1.00
A3     N     0.66667   0.33159   0.52012   0.00000  Uiso   1.00
